8
HF-SCF000/STO-3G  ENERGY=-78.30617965
C          0.0000000000        0.0000000000       -0.7688305041
C          0.0000000000        0.0000000000        0.7688305041
H          0.5078610884       -0.8796412083       -1.1532800203
H         -0.5078610884        0.8796412083        1.1532800203
H         -1.0157221768        0.0000000000       -1.1532800203
H          0.5078610884        0.8796412083       -1.1532800203
H         -0.5078610884       -0.8796412083        1.1532800203
H          1.0157221768        0.0000000000        1.1532800203
